*SPEF "ieee 1481-1999"
*DESIGN "user_proj_example"
*DATE "11:11:11 Fri 11 11, 1111"
*VENDOR "OpenRCX"
*PROGRAM "Parallel Extraction"
*VERSION "1.0"
*DESIGN_FLOW "NAME_SCOPE LOCAL" "PIN_CAP NONE"
*DIVIDER /
*DELIMITER :
*BUS_DELIMITER []
*T_UNIT 1 NS
*C_UNIT 1 PF
*R_UNIT 1 OHM
*L_UNIT 1 HENRY

*NAME_MAP
*1 io_in[0]
*2 io_in[10]
*3 io_in[11]
*4 io_in[12]
*5 io_in[13]
*6 io_in[14]
*7 io_in[15]
*8 io_in[16]
*9 io_in[17]
*10 io_in[18]
*11 io_in[19]
*12 io_in[1]
*13 io_in[20]
*14 io_in[21]
*15 io_in[22]
*16 io_in[23]
*17 io_in[24]
*18 io_in[25]
*19 io_in[26]
*20 io_in[27]
*21 io_in[28]
*22 io_in[29]
*23 io_in[2]
*24 io_in[30]
*25 io_in[31]
*26 io_in[32]
*27 io_in[33]
*28 io_in[34]
*29 io_in[35]
*30 io_in[36]
*31 io_in[37]
*32 io_in[3]
*33 io_in[4]
*34 io_in[5]
*35 io_in[6]
*36 io_in[7]
*37 io_in[8]
*38 io_in[9]
*39 io_oeb[0]
*40 io_oeb[10]
*41 io_oeb[11]
*42 io_oeb[12]
*43 io_oeb[13]
*44 io_oeb[14]
*45 io_oeb[15]
*46 io_oeb[16]
*47 io_oeb[17]
*48 io_oeb[18]
*49 io_oeb[19]
*50 io_oeb[1]
*51 io_oeb[20]
*52 io_oeb[21]
*53 io_oeb[22]
*54 io_oeb[23]
*55 io_oeb[24]
*56 io_oeb[25]
*57 io_oeb[26]
*58 io_oeb[27]
*59 io_oeb[28]
*60 io_oeb[29]
*61 io_oeb[2]
*62 io_oeb[30]
*63 io_oeb[31]
*64 io_oeb[32]
*65 io_oeb[33]
*66 io_oeb[34]
*67 io_oeb[35]
*68 io_oeb[36]
*69 io_oeb[37]
*70 io_oeb[3]
*71 io_oeb[4]
*72 io_oeb[5]
*73 io_oeb[6]
*74 io_oeb[7]
*75 io_oeb[8]
*76 io_oeb[9]
*77 io_out[0]
*78 io_out[10]
*79 io_out[11]
*80 io_out[12]
*81 io_out[13]
*82 io_out[14]
*83 io_out[15]
*84 io_out[16]
*85 io_out[17]
*86 io_out[18]
*87 io_out[19]
*88 io_out[1]
*89 io_out[20]
*90 io_out[21]
*91 io_out[22]
*92 io_out[23]
*93 io_out[24]
*94 io_out[25]
*95 io_out[26]
*96 io_out[27]
*97 io_out[28]
*98 io_out[29]
*99 io_out[2]
*100 io_out[30]
*101 io_out[31]
*102 io_out[32]
*103 io_out[33]
*104 io_out[34]
*105 io_out[35]
*106 io_out[36]
*107 io_out[37]
*108 io_out[3]
*109 io_out[4]
*110 io_out[5]
*111 io_out[6]
*112 io_out[7]
*113 io_out[8]
*114 io_out[9]
*115 irq[0]
*116 irq[1]
*117 irq[2]
*118 la_data_in[0]
*119 la_data_in[100]
*120 la_data_in[101]
*121 la_data_in[102]
*122 la_data_in[103]
*123 la_data_in[104]
*124 la_data_in[105]
*125 la_data_in[106]
*126 la_data_in[107]
*127 la_data_in[108]
*128 la_data_in[109]
*129 la_data_in[10]
*130 la_data_in[110]
*131 la_data_in[111]
*132 la_data_in[112]
*133 la_data_in[113]
*134 la_data_in[114]
*135 la_data_in[115]
*136 la_data_in[116]
*137 la_data_in[117]
*138 la_data_in[118]
*139 la_data_in[119]
*140 la_data_in[11]
*141 la_data_in[120]
*142 la_data_in[121]
*143 la_data_in[122]
*144 la_data_in[123]
*145 la_data_in[124]
*146 la_data_in[125]
*147 la_data_in[126]
*148 la_data_in[127]
*149 la_data_in[12]
*150 la_data_in[13]
*151 la_data_in[14]
*152 la_data_in[15]
*153 la_data_in[16]
*154 la_data_in[17]
*155 la_data_in[18]
*156 la_data_in[19]
*157 la_data_in[1]
*158 la_data_in[20]
*159 la_data_in[21]
*160 la_data_in[22]
*161 la_data_in[23]
*162 la_data_in[24]
*163 la_data_in[25]
*164 la_data_in[26]
*165 la_data_in[27]
*166 la_data_in[28]
*167 la_data_in[29]
*168 la_data_in[2]
*169 la_data_in[30]
*170 la_data_in[31]
*171 la_data_in[32]
*172 la_data_in[33]
*173 la_data_in[34]
*174 la_data_in[35]
*175 la_data_in[36]
*176 la_data_in[37]
*177 la_data_in[38]
*178 la_data_in[39]
*179 la_data_in[3]
*180 la_data_in[40]
*181 la_data_in[41]
*182 la_data_in[42]
*183 la_data_in[43]
*184 la_data_in[44]
*185 la_data_in[45]
*186 la_data_in[46]
*187 la_data_in[47]
*188 la_data_in[48]
*189 la_data_in[49]
*190 la_data_in[4]
*191 la_data_in[50]
*192 la_data_in[51]
*193 la_data_in[52]
*194 la_data_in[53]
*195 la_data_in[54]
*196 la_data_in[55]
*197 la_data_in[56]
*198 la_data_in[57]
*199 la_data_in[58]
*200 la_data_in[59]
*201 la_data_in[5]
*202 la_data_in[60]
*203 la_data_in[61]
*204 la_data_in[62]
*205 la_data_in[63]
*206 la_data_in[64]
*207 la_data_in[65]
*208 la_data_in[66]
*209 la_data_in[67]
*210 la_data_in[68]
*211 la_data_in[69]
*212 la_data_in[6]
*213 la_data_in[70]
*214 la_data_in[71]
*215 la_data_in[72]
*216 la_data_in[73]
*217 la_data_in[74]
*218 la_data_in[75]
*219 la_data_in[76]
*220 la_data_in[77]
*221 la_data_in[78]
*222 la_data_in[79]
*223 la_data_in[7]
*224 la_data_in[80]
*225 la_data_in[81]
*226 la_data_in[82]
*227 la_data_in[83]
*228 la_data_in[84]
*229 la_data_in[85]
*230 la_data_in[86]
*231 la_data_in[87]
*232 la_data_in[88]
*233 la_data_in[89]
*234 la_data_in[8]
*235 la_data_in[90]
*236 la_data_in[91]
*237 la_data_in[92]
*238 la_data_in[93]
*239 la_data_in[94]
*240 la_data_in[95]
*241 la_data_in[96]
*242 la_data_in[97]
*243 la_data_in[98]
*244 la_data_in[99]
*245 la_data_in[9]
*246 la_data_out[0]
*247 la_data_out[100]
*248 la_data_out[101]
*249 la_data_out[102]
*250 la_data_out[103]
*251 la_data_out[104]
*252 la_data_out[105]
*253 la_data_out[106]
*254 la_data_out[107]
*255 la_data_out[108]
*256 la_data_out[109]
*257 la_data_out[10]
*258 la_data_out[110]
*259 la_data_out[111]
*260 la_data_out[112]
*261 la_data_out[113]
*262 la_data_out[114]
*263 la_data_out[115]
*264 la_data_out[116]
*265 la_data_out[117]
*266 la_data_out[118]
*267 la_data_out[119]
*268 la_data_out[11]
*269 la_data_out[120]
*270 la_data_out[121]
*271 la_data_out[122]
*272 la_data_out[123]
*273 la_data_out[124]
*274 la_data_out[125]
*275 la_data_out[126]
*276 la_data_out[127]
*277 la_data_out[12]
*278 la_data_out[13]
*279 la_data_out[14]
*280 la_data_out[15]
*281 la_data_out[16]
*282 la_data_out[17]
*283 la_data_out[18]
*284 la_data_out[19]
*285 la_data_out[1]
*286 la_data_out[20]
*287 la_data_out[21]
*288 la_data_out[22]
*289 la_data_out[23]
*290 la_data_out[24]
*291 la_data_out[25]
*292 la_data_out[26]
*293 la_data_out[27]
*294 la_data_out[28]
*295 la_data_out[29]
*296 la_data_out[2]
*297 la_data_out[30]
*298 la_data_out[31]
*299 la_data_out[32]
*300 la_data_out[33]
*301 la_data_out[34]
*302 la_data_out[35]
*303 la_data_out[36]
*304 la_data_out[37]
*305 la_data_out[38]
*306 la_data_out[39]
*307 la_data_out[3]
*308 la_data_out[40]
*309 la_data_out[41]
*310 la_data_out[42]
*311 la_data_out[43]
*312 la_data_out[44]
*313 la_data_out[45]
*314 la_data_out[46]
*315 la_data_out[47]
*316 la_data_out[48]
*317 la_data_out[49]
*318 la_data_out[4]
*319 la_data_out[50]
*320 la_data_out[51]
*321 la_data_out[52]
*322 la_data_out[53]
*323 la_data_out[54]
*324 la_data_out[55]
*325 la_data_out[56]
*326 la_data_out[57]
*327 la_data_out[58]
*328 la_data_out[59]
*329 la_data_out[5]
*330 la_data_out[60]
*331 la_data_out[61]
*332 la_data_out[62]
*333 la_data_out[63]
*334 la_data_out[64]
*335 la_data_out[65]
*336 la_data_out[66]
*337 la_data_out[67]
*338 la_data_out[68]
*339 la_data_out[69]
*340 la_data_out[6]
*341 la_data_out[70]
*342 la_data_out[71]
*343 la_data_out[72]
*344 la_data_out[73]
*345 la_data_out[74]
*346 la_data_out[75]
*347 la_data_out[76]
*348 la_data_out[77]
*349 la_data_out[78]
*350 la_data_out[79]
*351 la_data_out[7]
*352 la_data_out[80]
*353 la_data_out[81]
*354 la_data_out[82]
*355 la_data_out[83]
*356 la_data_out[84]
*357 la_data_out[85]
*358 la_data_out[86]
*359 la_data_out[87]
*360 la_data_out[88]
*361 la_data_out[89]
*362 la_data_out[8]
*363 la_data_out[90]
*364 la_data_out[91]
*365 la_data_out[92]
*366 la_data_out[93]
*367 la_data_out[94]
*368 la_data_out[95]
*369 la_data_out[96]
*370 la_data_out[97]
*371 la_data_out[98]
*372 la_data_out[99]
*373 la_data_out[9]
*374 la_oenb[0]
*375 la_oenb[100]
*376 la_oenb[101]
*377 la_oenb[102]
*378 la_oenb[103]
*379 la_oenb[104]
*380 la_oenb[105]
*381 la_oenb[106]
*382 la_oenb[107]
*383 la_oenb[108]
*384 la_oenb[109]
*385 la_oenb[10]
*386 la_oenb[110]
*387 la_oenb[111]
*388 la_oenb[112]
*389 la_oenb[113]
*390 la_oenb[114]
*391 la_oenb[115]
*392 la_oenb[116]
*393 la_oenb[117]
*394 la_oenb[118]
*395 la_oenb[119]
*396 la_oenb[11]
*397 la_oenb[120]
*398 la_oenb[121]
*399 la_oenb[122]
*400 la_oenb[123]
*401 la_oenb[124]
*402 la_oenb[125]
*403 la_oenb[126]
*404 la_oenb[127]
*405 la_oenb[12]
*406 la_oenb[13]
*407 la_oenb[14]
*408 la_oenb[15]
*409 la_oenb[16]
*410 la_oenb[17]
*411 la_oenb[18]
*412 la_oenb[19]
*413 la_oenb[1]
*414 la_oenb[20]
*415 la_oenb[21]
*416 la_oenb[22]
*417 la_oenb[23]
*418 la_oenb[24]
*419 la_oenb[25]
*420 la_oenb[26]
*421 la_oenb[27]
*422 la_oenb[28]
*423 la_oenb[29]
*424 la_oenb[2]
*425 la_oenb[30]
*426 la_oenb[31]
*427 la_oenb[32]
*428 la_oenb[33]
*429 la_oenb[34]
*430 la_oenb[35]
*431 la_oenb[36]
*432 la_oenb[37]
*433 la_oenb[38]
*434 la_oenb[39]
*435 la_oenb[3]
*436 la_oenb[40]
*437 la_oenb[41]
*438 la_oenb[42]
*439 la_oenb[43]
*440 la_oenb[44]
*441 la_oenb[45]
*442 la_oenb[46]
*443 la_oenb[47]
*444 la_oenb[48]
*445 la_oenb[49]
*446 la_oenb[4]
*447 la_oenb[50]
*448 la_oenb[51]
*449 la_oenb[52]
*450 la_oenb[53]
*451 la_oenb[54]
*452 la_oenb[55]
*453 la_oenb[56]
*454 la_oenb[57]
*455 la_oenb[58]
*456 la_oenb[59]
*457 la_oenb[5]
*458 la_oenb[60]
*459 la_oenb[61]
*460 la_oenb[62]
*461 la_oenb[63]
*462 la_oenb[64]
*463 la_oenb[65]
*464 la_oenb[66]
*465 la_oenb[67]
*466 la_oenb[68]
*467 la_oenb[69]
*468 la_oenb[6]
*469 la_oenb[70]
*470 la_oenb[71]
*471 la_oenb[72]
*472 la_oenb[73]
*473 la_oenb[74]
*474 la_oenb[75]
*475 la_oenb[76]
*476 la_oenb[77]
*477 la_oenb[78]
*478 la_oenb[79]
*479 la_oenb[7]
*480 la_oenb[80]
*481 la_oenb[81]
*482 la_oenb[82]
*483 la_oenb[83]
*484 la_oenb[84]
*485 la_oenb[85]
*486 la_oenb[86]
*487 la_oenb[87]
*488 la_oenb[88]
*489 la_oenb[89]
*490 la_oenb[8]
*491 la_oenb[90]
*492 la_oenb[91]
*493 la_oenb[92]
*494 la_oenb[93]
*495 la_oenb[94]
*496 la_oenb[95]
*497 la_oenb[96]
*498 la_oenb[97]
*499 la_oenb[98]
*500 la_oenb[99]
*501 la_oenb[9]
*502 user_clock2
*505 wb_clk_i
*506 wb_rst_i
*507 wbs_ack_o
*508 wbs_adr_i[0]
*509 wbs_adr_i[10]
*510 wbs_adr_i[11]
*511 wbs_adr_i[12]
*512 wbs_adr_i[13]
*513 wbs_adr_i[14]
*514 wbs_adr_i[15]
*515 wbs_adr_i[16]
*516 wbs_adr_i[17]
*517 wbs_adr_i[18]
*518 wbs_adr_i[19]
*519 wbs_adr_i[1]
*520 wbs_adr_i[20]
*521 wbs_adr_i[21]
*522 wbs_adr_i[22]
*523 wbs_adr_i[23]
*524 wbs_adr_i[24]
*525 wbs_adr_i[25]
*526 wbs_adr_i[26]
*527 wbs_adr_i[27]
*528 wbs_adr_i[28]
*529 wbs_adr_i[29]
*530 wbs_adr_i[2]
*531 wbs_adr_i[30]
*532 wbs_adr_i[31]
*533 wbs_adr_i[3]
*534 wbs_adr_i[4]
*535 wbs_adr_i[5]
*536 wbs_adr_i[6]
*537 wbs_adr_i[7]
*538 wbs_adr_i[8]
*539 wbs_adr_i[9]
*540 wbs_cyc_i
*541 wbs_dat_i[0]
*542 wbs_dat_i[10]
*543 wbs_dat_i[11]
*544 wbs_dat_i[12]
*545 wbs_dat_i[13]
*546 wbs_dat_i[14]
*547 wbs_dat_i[15]
*548 wbs_dat_i[16]
*549 wbs_dat_i[17]
*550 wbs_dat_i[18]
*551 wbs_dat_i[19]
*552 wbs_dat_i[1]
*553 wbs_dat_i[20]
*554 wbs_dat_i[21]
*555 wbs_dat_i[22]
*556 wbs_dat_i[23]
*557 wbs_dat_i[24]
*558 wbs_dat_i[25]
*559 wbs_dat_i[26]
*560 wbs_dat_i[27]
*561 wbs_dat_i[28]
*562 wbs_dat_i[29]
*563 wbs_dat_i[2]
*564 wbs_dat_i[30]
*565 wbs_dat_i[31]
*566 wbs_dat_i[3]
*567 wbs_dat_i[4]
*568 wbs_dat_i[5]
*569 wbs_dat_i[6]
*570 wbs_dat_i[7]
*571 wbs_dat_i[8]
*572 wbs_dat_i[9]
*573 wbs_dat_o[0]
*574 wbs_dat_o[10]
*575 wbs_dat_o[11]
*576 wbs_dat_o[12]
*577 wbs_dat_o[13]
*578 wbs_dat_o[14]
*579 wbs_dat_o[15]
*580 wbs_dat_o[16]
*581 wbs_dat_o[17]
*582 wbs_dat_o[18]
*583 wbs_dat_o[19]
*584 wbs_dat_o[1]
*585 wbs_dat_o[20]
*586 wbs_dat_o[21]
*587 wbs_dat_o[22]
*588 wbs_dat_o[23]
*589 wbs_dat_o[24]
*590 wbs_dat_o[25]
*591 wbs_dat_o[26]
*592 wbs_dat_o[27]
*593 wbs_dat_o[28]
*594 wbs_dat_o[29]
*595 wbs_dat_o[2]
*596 wbs_dat_o[30]
*597 wbs_dat_o[31]
*598 wbs_dat_o[3]
*599 wbs_dat_o[4]
*600 wbs_dat_o[5]
*601 wbs_dat_o[6]
*602 wbs_dat_o[7]
*603 wbs_dat_o[8]
*604 wbs_dat_o[9]
*605 wbs_sel_i[0]
*606 wbs_sel_i[1]
*607 wbs_sel_i[2]
*608 wbs_sel_i[3]
*609 wbs_stb_i
*610 wbs_we_i
*611 buf_i\[0\]
*612 buf_i\[100\]
*613 buf_i\[101\]
*614 buf_i\[102\]
*615 buf_i\[103\]
*616 buf_i\[104\]
*617 buf_i\[105\]
*618 buf_i\[106\]
*619 buf_i\[107\]
*620 buf_i\[108\]
*621 buf_i\[109\]
*622 buf_i\[10\]
*623 buf_i\[110\]
*624 buf_i\[111\]
*625 buf_i\[112\]
*626 buf_i\[113\]
*627 buf_i\[114\]
*628 buf_i\[115\]
*629 buf_i\[116\]
*630 buf_i\[117\]
*631 buf_i\[118\]
*632 buf_i\[119\]
*633 buf_i\[11\]
*634 buf_i\[120\]
*635 buf_i\[121\]
*636 buf_i\[122\]
*637 buf_i\[123\]
*638 buf_i\[124\]
*639 buf_i\[125\]
*640 buf_i\[126\]
*641 buf_i\[127\]
*642 buf_i\[128\]
*643 buf_i\[129\]
*644 buf_i\[12\]
*645 buf_i\[130\]
*646 buf_i\[131\]
*647 buf_i\[132\]
*648 buf_i\[133\]
*649 buf_i\[134\]
*650 buf_i\[135\]
*651 buf_i\[136\]
*652 buf_i\[137\]
*653 buf_i\[138\]
*654 buf_i\[139\]
*655 buf_i\[13\]
*656 buf_i\[140\]
*657 buf_i\[141\]
*658 buf_i\[142\]
*659 buf_i\[143\]
*660 buf_i\[144\]
*661 buf_i\[145\]
*662 buf_i\[146\]
*663 buf_i\[147\]
*664 buf_i\[148\]
*665 buf_i\[149\]
*666 buf_i\[14\]
*667 buf_i\[150\]
*668 buf_i\[151\]
*669 buf_i\[152\]
*670 buf_i\[153\]
*671 buf_i\[154\]
*672 buf_i\[155\]
*673 buf_i\[156\]
*674 buf_i\[157\]
*675 buf_i\[158\]
*676 buf_i\[159\]
*677 buf_i\[15\]
*678 buf_i\[160\]
*679 buf_i\[161\]
*680 buf_i\[162\]
*681 buf_i\[163\]
*682 buf_i\[164\]
*683 buf_i\[165\]
*684 buf_i\[166\]
*685 buf_i\[167\]
*686 buf_i\[168\]
*687 buf_i\[169\]
*688 buf_i\[16\]
*689 buf_i\[170\]
*690 buf_i\[171\]
*691 buf_i\[172\]
*692 buf_i\[173\]
*693 buf_i\[174\]
*694 buf_i\[175\]
*695 buf_i\[176\]
*696 buf_i\[177\]
*697 buf_i\[178\]
*698 buf_i\[179\]
*699 buf_i\[17\]
*700 buf_i\[180\]
*701 buf_i\[181\]
*702 buf_i\[182\]
*703 buf_i\[183\]
*704 buf_i\[184\]
*705 buf_i\[185\]
*706 buf_i\[186\]
*707 buf_i\[187\]
*708 buf_i\[188\]
*709 buf_i\[189\]
*710 buf_i\[18\]
*711 buf_i\[190\]
*712 buf_i\[191\]
*713 buf_i\[192\]
*714 buf_i\[193\]
*715 buf_i\[194\]
*716 buf_i\[195\]
*717 buf_i\[196\]
*718 buf_i\[197\]
*719 buf_i\[198\]
*720 buf_i\[199\]
*721 buf_i\[19\]
*722 buf_i\[1\]
*723 buf_i\[200\]
*724 buf_i\[201\]
*725 buf_i\[202\]
*726 buf_i\[203\]
*727 buf_i\[204\]
*728 buf_i\[205\]
*729 buf_i\[206\]
*730 buf_i\[207\]
*731 buf_i\[208\]
*732 buf_i\[209\]
*733 buf_i\[20\]
*734 buf_i\[210\]
*735 buf_i\[211\]
*736 buf_i\[212\]
*737 buf_i\[213\]
*738 buf_i\[214\]
*739 buf_i\[215\]
*740 buf_i\[216\]
*741 buf_i\[217\]
*742 buf_i\[218\]
*743 buf_i\[219\]
*744 buf_i\[21\]
*745 buf_i\[220\]
*746 buf_i\[221\]
*747 buf_i\[222\]
*748 buf_i\[223\]
*749 buf_i\[224\]
*750 buf_i\[225\]
*751 buf_i\[226\]
*752 buf_i\[227\]
*753 buf_i\[228\]
*754 buf_i\[229\]
*755 buf_i\[22\]
*756 buf_i\[230\]
*757 buf_i\[231\]
*758 buf_i\[232\]
*759 buf_i\[233\]
*760 buf_i\[234\]
*761 buf_i\[235\]
*762 buf_i\[236\]
*763 buf_i\[237\]
*764 buf_i\[238\]
*765 buf_i\[239\]
*766 buf_i\[23\]
*767 buf_i\[240\]
*768 buf_i\[241\]
*769 buf_i\[242\]
*770 buf_i\[243\]
*771 buf_i\[244\]
*772 buf_i\[245\]
*773 buf_i\[246\]
*774 buf_i\[247\]
*775 buf_i\[248\]
*776 buf_i\[249\]
*777 buf_i\[24\]
*778 buf_i\[250\]
*779 buf_i\[251\]
*780 buf_i\[252\]
*781 buf_i\[253\]
*782 buf_i\[254\]
*783 buf_i\[255\]
*784 buf_i\[256\]
*785 buf_i\[257\]
*786 buf_i\[258\]
*787 buf_i\[259\]
*788 buf_i\[25\]
*789 buf_i\[260\]
*790 buf_i\[261\]
*791 buf_i\[262\]
*792 buf_i\[263\]
*793 buf_i\[264\]
*794 buf_i\[265\]
*795 buf_i\[266\]
*796 buf_i\[267\]
*797 buf_i\[268\]
*798 buf_i\[269\]
*799 buf_i\[26\]
*800 buf_i\[270\]
*801 buf_i\[271\]
*802 buf_i\[272\]
*803 buf_i\[273\]
*804 buf_i\[274\]
*805 buf_i\[275\]
*806 buf_i\[276\]
*807 buf_i\[277\]
*808 buf_i\[278\]
*809 buf_i\[279\]
*810 buf_i\[27\]
*811 buf_i\[280\]
*812 buf_i\[281\]
*813 buf_i\[282\]
*814 buf_i\[283\]
*815 buf_i\[284\]
*816 buf_i\[285\]
*817 buf_i\[286\]
*818 buf_i\[287\]
*819 buf_i\[288\]
*820 buf_i\[289\]
*821 buf_i\[28\]
*822 buf_i\[290\]
*823 buf_i\[291\]
*824 buf_i\[292\]
*825 buf_i\[293\]
*826 buf_i\[294\]
*827 buf_i\[295\]
*828 buf_i\[296\]
*829 buf_i\[297\]
*830 buf_i\[298\]
*831 buf_i\[299\]
*832 buf_i\[29\]
*833 buf_i\[2\]
*834 buf_i\[300\]
*835 buf_i\[301\]
*836 buf_i\[302\]
*837 buf_i\[303\]
*838 buf_i\[304\]
*839 buf_i\[305\]
*840 buf_i\[306\]
*841 buf_i\[307\]
*842 buf_i\[308\]
*843 buf_i\[309\]
*844 buf_i\[30\]
*845 buf_i\[310\]
*846 buf_i\[311\]
*847 buf_i\[312\]
*848 buf_i\[313\]
*849 buf_i\[314\]
*850 buf_i\[315\]
*851 buf_i\[316\]
*852 buf_i\[317\]
*853 buf_i\[318\]
*854 buf_i\[319\]
*855 buf_i\[31\]
*856 buf_i\[320\]
*857 buf_i\[321\]
*858 buf_i\[322\]
*859 buf_i\[323\]
*860 buf_i\[324\]
*861 buf_i\[325\]
*862 buf_i\[326\]
*863 buf_i\[327\]
*864 buf_i\[328\]
*865 buf_i\[329\]
*866 buf_i\[32\]
*867 buf_i\[330\]
*868 buf_i\[331\]
*869 buf_i\[332\]
*870 buf_i\[333\]
*871 buf_i\[334\]
*872 buf_i\[335\]
*873 buf_i\[336\]
*874 buf_i\[337\]
*875 buf_i\[338\]
*876 buf_i\[339\]
*877 buf_i\[33\]
*878 buf_i\[340\]
*879 buf_i\[341\]
*880 buf_i\[342\]
*881 buf_i\[343\]
*882 buf_i\[344\]
*883 buf_i\[345\]
*884 buf_i\[346\]
*885 buf_i\[347\]
*886 buf_i\[348\]
*887 buf_i\[349\]
*888 buf_i\[34\]
*889 buf_i\[350\]
*890 buf_i\[351\]
*891 buf_i\[352\]
*892 buf_i\[353\]
*893 buf_i\[354\]
*894 buf_i\[355\]
*895 buf_i\[356\]
*896 buf_i\[357\]
*897 buf_i\[358\]
*898 buf_i\[359\]
*899 buf_i\[35\]
*900 buf_i\[360\]
*901 buf_i\[361\]
*902 buf_i\[362\]
*903 buf_i\[363\]
*904 buf_i\[364\]
*905 buf_i\[36\]
*906 buf_i\[37\]
*907 buf_i\[38\]
*908 buf_i\[39\]
*909 buf_i\[3\]
*910 buf_i\[40\]
*911 buf_i\[41\]
*912 buf_i\[42\]
*913 buf_i\[43\]
*914 buf_i\[44\]
*915 buf_i\[45\]
*916 buf_i\[46\]
*917 buf_i\[47\]
*918 buf_i\[48\]
*919 buf_i\[49\]
*920 buf_i\[4\]
*921 buf_i\[50\]
*922 buf_i\[51\]
*923 buf_i\[52\]
*924 buf_i\[53\]
*925 buf_i\[54\]
*926 buf_i\[55\]
*927 buf_i\[56\]
*928 buf_i\[57\]
*929 buf_i\[58\]
*930 buf_i\[59\]
*931 buf_i\[5\]
*932 buf_i\[60\]
*933 buf_i\[61\]
*934 buf_i\[62\]
*935 buf_i\[63\]
*936 buf_i\[64\]
*937 buf_i\[65\]
*938 buf_i\[66\]
*939 buf_i\[67\]
*940 buf_i\[68\]
*941 buf_i\[69\]
*942 buf_i\[6\]
*943 buf_i\[70\]
*944 buf_i\[71\]
*945 buf_i\[72\]
*946 buf_i\[73\]
*947 buf_i\[74\]
*948 buf_i\[75\]
*949 buf_i\[76\]
*950 buf_i\[77\]
*951 buf_i\[78\]
*952 buf_i\[79\]
*953 buf_i\[7\]
*954 buf_i\[80\]
*955 buf_i\[81\]
*956 buf_i\[82\]
*957 buf_i\[83\]
*958 buf_i\[84\]
*959 buf_i\[85\]
*960 buf_i\[86\]
*961 buf_i\[87\]
*962 buf_i\[88\]
*963 buf_i\[89\]
*964 buf_i\[8\]
*965 buf_i\[90\]
*966 buf_i\[91\]
*967 buf_i\[92\]
*968 buf_i\[93\]
*969 buf_i\[94\]
*970 buf_i\[95\]
*971 buf_i\[96\]
*972 buf_i\[97\]
*973 buf_i\[98\]
*974 buf_i\[99\]
*975 buf_i\[9\]
*976 buf_i_q\[0\]
*977 buf_i_q\[100\]
*978 buf_i_q\[101\]
*979 buf_i_q\[102\]
*980 buf_i_q\[103\]
*981 buf_i_q\[104\]
*982 buf_i_q\[105\]
*983 buf_i_q\[106\]
*984 buf_i_q\[107\]
*985 buf_i_q\[108\]
*986 buf_i_q\[109\]
*987 buf_i_q\[10\]
*988 buf_i_q\[110\]
*989 buf_i_q\[111\]
*990 buf_i_q\[112\]
*991 buf_i_q\[113\]
*992 buf_i_q\[114\]
*993 buf_i_q\[115\]
*994 buf_i_q\[116\]
*995 buf_i_q\[117\]
*996 buf_i_q\[118\]
*997 buf_i_q\[119\]
*998 buf_i_q\[11\]
*999 buf_i_q\[120\]
*1000 buf_i_q\[121\]
*1001 buf_i_q\[122\]
*1002 buf_i_q\[123\]
*1003 buf_i_q\[124\]
*1004 buf_i_q\[125\]
*1005 buf_i_q\[126\]
*1006 buf_i_q\[127\]
*1007 buf_i_q\[128\]
*1008 buf_i_q\[129\]
*1009 buf_i_q\[12\]
*1010 buf_i_q\[130\]
*1011 buf_i_q\[131\]
*1012 buf_i_q\[132\]
*1013 buf_i_q\[133\]
*1014 buf_i_q\[134\]
*1015 buf_i_q\[135\]
*1016 buf_i_q\[136\]
*1017 buf_i_q\[137\]
*1018 buf_i_q\[138\]
*1019 buf_i_q\[139\]
*1020 buf_i_q\[13\]
*1021 buf_i_q\[140\]
*1022 buf_i_q\[141\]
*1023 buf_i_q\[142\]
*1024 buf_i_q\[143\]
*1025 buf_i_q\[144\]
*1026 buf_i_q\[145\]
*1027 buf_i_q\[146\]
*1028 buf_i_q\[147\]
*1029 buf_i_q\[148\]
*1030 buf_i_q\[149\]
*1031 buf_i_q\[14\]
*1032 buf_i_q\[150\]
*1033 buf_i_q\[151\]
*1034 buf_i_q\[152\]
*1035 buf_i_q\[153\]
*1036 buf_i_q\[154\]
*1037 buf_i_q\[155\]
*1038 buf_i_q\[156\]
*1039 buf_i_q\[157\]
*1040 buf_i_q\[158\]
*1041 buf_i_q\[159\]
*1042 buf_i_q\[15\]
*1043 buf_i_q\[160\]
*1044 buf_i_q\[161\]
*1045 buf_i_q\[162\]
*1046 buf_i_q\[163\]
*1047 buf_i_q\[164\]
*1048 buf_i_q\[165\]
*1049 buf_i_q\[166\]
*1050 buf_i_q\[167\]
*1051 buf_i_q\[168\]
*1052 buf_i_q\[169\]
*1053 buf_i_q\[16\]
*1054 buf_i_q\[170\]
*1055 buf_i_q\[171\]
*1056 buf_i_q\[172\]
*1057 buf_i_q\[173\]
*1058 buf_i_q\[174\]
*1059 buf_i_q\[175\]
*1060 buf_i_q\[176\]
*1061 buf_i_q\[177\]
*1062 buf_i_q\[178\]
*1063 buf_i_q\[179\]
*1064 buf_i_q\[17\]
*1065 buf_i_q\[180\]
*1066 buf_i_q\[181\]
*1067 buf_i_q\[182\]
*1068 buf_i_q\[183\]
*1069 buf_i_q\[184\]
*1070 buf_i_q\[185\]
*1071 buf_i_q\[186\]
*1072 buf_i_q\[187\]
*1073 buf_i_q\[188\]
*1074 buf_i_q\[189\]
*1075 buf_i_q\[18\]
*1076 buf_i_q\[190\]
*1077 buf_i_q\[191\]
*1078 buf_i_q\[192\]
*1079 buf_i_q\[193\]
*1080 buf_i_q\[194\]
*1081 buf_i_q\[195\]
*1082 buf_i_q\[196\]
*1083 buf_i_q\[197\]
*1084 buf_i_q\[198\]
*1085 buf_i_q\[199\]
*1086 buf_i_q\[19\]
*1087 buf_i_q\[1\]
*1088 buf_i_q\[200\]
*1089 buf_i_q\[201\]
*1090 buf_i_q\[202\]
*1091 buf_i_q\[203\]
*1092 buf_i_q\[204\]
*1093 buf_i_q\[205\]
*1094 buf_i_q\[206\]
*1095 buf_i_q\[207\]
*1096 buf_i_q\[208\]
*1097 buf_i_q\[209\]
*1098 buf_i_q\[20\]
*1099 buf_i_q\[210\]
*1100 buf_i_q\[211\]
*1101 buf_i_q\[212\]
*1102 buf_i_q\[213\]
*1103 buf_i_q\[214\]
*1104 buf_i_q\[215\]
*1105 buf_i_q\[216\]
*1106 buf_i_q\[217\]
*1107 buf_i_q\[218\]
*1108 buf_i_q\[219\]
*1109 buf_i_q\[21\]
*1110 buf_i_q\[220\]
*1111 buf_i_q\[221\]
*1112 buf_i_q\[222\]
*1113 buf_i_q\[223\]
*1114 buf_i_q\[224\]
*1115 buf_i_q\[225\]
*1116 buf_i_q\[226\]
*1117 buf_i_q\[227\]
*1118 buf_i_q\[228\]
*1119 buf_i_q\[229\]
*1120 buf_i_q\[22\]
*1121 buf_i_q\[230\]
*1122 buf_i_q\[231\]
*1123 buf_i_q\[232\]
*1124 buf_i_q\[233\]
*1125 buf_i_q\[234\]
*1126 buf_i_q\[235\]
*1127 buf_i_q\[236\]
*1128 buf_i_q\[237\]
*1129 buf_i_q\[238\]
*1130 buf_i_q\[239\]
*1131 buf_i_q\[23\]
*1132 buf_i_q\[240\]
*1133 buf_i_q\[241\]
*1134 buf_i_q\[242\]
*1135 buf_i_q\[243\]
*1136 buf_i_q\[244\]
*1137 buf_i_q\[245\]
*1138 buf_i_q\[246\]
*1139 buf_i_q\[247\]
*1140 buf_i_q\[248\]
*1141 buf_i_q\[249\]
*1142 buf_i_q\[24\]
*1143 buf_i_q\[250\]
*1144 buf_i_q\[251\]
*1145 buf_i_q\[252\]
*1146 buf_i_q\[253\]
*1147 buf_i_q\[254\]
*1148 buf_i_q\[255\]
*1149 buf_i_q\[256\]
*1150 buf_i_q\[257\]
*1151 buf_i_q\[258\]
*1152 buf_i_q\[259\]
*1153 buf_i_q\[25\]
*1154 buf_i_q\[260\]
*1155 buf_i_q\[261\]
*1156 buf_i_q\[262\]
*1157 buf_i_q\[263\]
*1158 buf_i_q\[264\]
*1159 buf_i_q\[265\]
*1160 buf_i_q\[266\]
*1161 buf_i_q\[267\]
*1162 buf_i_q\[268\]
*1163 buf_i_q\[269\]
*1164 buf_i_q\[26\]
*1165 buf_i_q\[270\]
*1166 buf_i_q\[271\]
*1167 buf_i_q\[272\]
*1168 buf_i_q\[273\]
*1169 buf_i_q\[274\]
*1170 buf_i_q\[275\]
*1171 buf_i_q\[276\]
*1172 buf_i_q\[277\]
*1173 buf_i_q\[278\]
*1174 buf_i_q\[279\]
*1175 buf_i_q\[27\]
*1176 buf_i_q\[280\]
*1177 buf_i_q\[281\]
*1178 buf_i_q\[282\]
*1179 buf_i_q\[283\]
*1180 buf_i_q\[284\]
*1181 buf_i_q\[285\]
*1182 buf_i_q\[286\]
*1183 buf_i_q\[287\]
*1184 buf_i_q\[288\]
*1185 buf_i_q\[289\]
*1186 buf_i_q\[28\]
*1187 buf_i_q\[290\]
*1188 buf_i_q\[291\]
*1189 buf_i_q\[292\]
*1190 buf_i_q\[293\]
*1191 buf_i_q\[294\]
*1192 buf_i_q\[295\]
*1193 buf_i_q\[296\]
*1194 buf_i_q\[297\]
*1195 buf_i_q\[298\]
*1196 buf_i_q\[299\]
*1197 buf_i_q\[29\]
*1198 buf_i_q\[2\]
*1199 buf_i_q\[300\]
*1200 buf_i_q\[301\]
*1201 buf_i_q\[302\]
*1202 buf_i_q\[303\]
*1203 buf_i_q\[304\]
*1204 buf_i_q\[305\]
*1205 buf_i_q\[306\]
*1206 buf_i_q\[307\]
*1207 buf_i_q\[308\]
*1208 buf_i_q\[309\]
*1209 buf_i_q\[30\]
*1210 buf_i_q\[310\]
*1211 buf_i_q\[311\]
*1212 buf_i_q\[312\]
*1213 buf_i_q\[313\]
*1214 buf_i_q\[314\]
*1215 buf_i_q\[315\]
*1216 buf_i_q\[316\]
*1217 buf_i_q\[317\]
*1218 buf_i_q\[318\]
*1219 buf_i_q\[319\]
*1220 buf_i_q\[31\]
*1221 buf_i_q\[320\]
*1222 buf_i_q\[321\]
*1223 buf_i_q\[322\]
*1224 buf_i_q\[323\]
*1225 buf_i_q\[324\]
*1226 buf_i_q\[325\]
*1227 buf_i_q\[326\]
*1228 buf_i_q\[327\]
*1229 buf_i_q\[328\]
*1230 buf_i_q\[329\]
*1231 buf_i_q\[32\]
*1232 buf_i_q\[330\]
*1233 buf_i_q\[331\]
*1234 buf_i_q\[332\]
*1235 buf_i_q\[333\]
*1236 buf_i_q\[334\]
*1237 buf_i_q\[335\]
*1238 buf_i_q\[336\]
*1239 buf_i_q\[337\]
*1240 buf_i_q\[338\]
*1241 buf_i_q\[339\]
*1242 buf_i_q\[33\]
*1243 buf_i_q\[340\]
*1244 buf_i_q\[341\]
*1245 buf_i_q\[342\]
*1246 buf_i_q\[343\]
*1247 buf_i_q\[344\]
*1248 buf_i_q\[345\]
*1249 buf_i_q\[346\]
*1250 buf_i_q\[347\]
*1251 buf_i_q\[348\]
*1252 buf_i_q\[349\]
*1253 buf_i_q\[34\]
*1254 buf_i_q\[350\]
*1255 buf_i_q\[351\]
*1256 buf_i_q\[352\]
*1257 buf_i_q\[353\]
*1258 buf_i_q\[354\]
*1259 buf_i_q\[355\]
*1260 buf_i_q\[356\]
*1261 buf_i_q\[357\]
*1262 buf_i_q\[358\]
*1263 buf_i_q\[359\]
*1264 buf_i_q\[35\]
*1265 buf_i_q\[360\]
*1266 buf_i_q\[361\]
*1267 buf_i_q\[362\]
*1268 buf_i_q\[363\]
*1269 buf_i_q\[364\]
*1270 buf_i_q\[36\]
*1271 buf_i_q\[37\]
*1272 buf_i_q\[38\]
*1273 buf_i_q\[39\]
*1274 buf_i_q\[3\]
*1275 buf_i_q\[40\]
*1276 buf_i_q\[41\]
*1277 buf_i_q\[42\]
*1278 buf_i_q\[43\]
*1279 buf_i_q\[44\]
*1280 buf_i_q\[45\]
*1281 buf_i_q\[46\]
*1282 buf_i_q\[47\]
*1283 buf_i_q\[48\]
*1284 buf_i_q\[49\]
*1285 buf_i_q\[4\]
*1286 buf_i_q\[50\]
*1287 buf_i_q\[51\]
*1288 buf_i_q\[52\]
*1289 buf_i_q\[53\]
*1290 buf_i_q\[54\]
*1291 buf_i_q\[55\]
*1292 buf_i_q\[56\]
*1293 buf_i_q\[57\]
*1294 buf_i_q\[58\]
*1295 buf_i_q\[59\]
*1296 buf_i_q\[5\]
*1297 buf_i_q\[60\]
*1298 buf_i_q\[61\]
*1299 buf_i_q\[62\]
*1300 buf_i_q\[63\]
*1301 buf_i_q\[64\]
*1302 buf_i_q\[65\]
*1303 buf_i_q\[66\]
*1304 buf_i_q\[67\]
*1305 buf_i_q\[68\]
*1306 buf_i_q\[69\]
*1307 buf_i_q\[6\]
*1308 buf_i_q\[70\]
*1309 buf_i_q\[71\]
*1310 buf_i_q\[72\]
*1311 buf_i_q\[73\]
*1312 buf_i_q\[74\]
*1313 buf_i_q\[75\]
*1314 buf_i_q\[76\]
*1315 buf_i_q\[77\]
*1316 buf_i_q\[78\]
*1317 buf_i_q\[79\]
*1318 buf_i_q\[7\]
*1319 buf_i_q\[80\]
*1320 buf_i_q\[81\]
*1321 buf_i_q\[82\]
*1322 buf_i_q\[83\]
*1323 buf_i_q\[84\]
*1324 buf_i_q\[85\]
*1325 buf_i_q\[86\]
*1326 buf_i_q\[87\]
*1327 buf_i_q\[88\]
*1328 buf_i_q\[89\]
*1329 buf_i_q\[8\]
*1330 buf_i_q\[90\]
*1331 buf_i_q\[91\]
*1332 buf_i_q\[92\]
*1333 buf_i_q\[93\]
*1334 buf_i_q\[94\]
*1335 buf_i_q\[95\]
*1336 buf_i_q\[96\]
*1337 buf_i_q\[97\]
*1338 buf_i_q\[98\]
*1339 buf_i_q\[99\]
*1340 buf_i_q\[9\]
*1341 clk
*1342 o_const\[0\]
*1343 o_const\[100\]
*1344 o_const\[101\]
*1345 o_const\[102\]
*1346 o_const\[103\]
*1347 o_const\[104\]
*1348 o_const\[105\]
*1349 o_const\[106\]
*1350 o_const\[107\]
*1351 o_const\[108\]
*1352 o_const\[109\]
*1353 o_const\[10\]
*1354 o_const\[110\]
*1355 o_const\[111\]
*1356 o_const\[112\]
*1357 o_const\[113\]
*1358 o_const\[114\]
*1359 o_const\[115\]
*1360 o_const\[116\]
*1361 o_const\[117\]
*1362 o_const\[118\]
*1363 o_const\[119\]
*1364 o_const\[11\]
*1365 o_const\[120\]
*1366 o_const\[121\]
*1367 o_const\[122\]
*1368 o_const\[123\]
*1369 o_const\[124\]
*1370 o_const\[125\]
*1371 o_const\[126\]
*1372 o_const\[127\]
*1373 o_const\[128\]
*1374 o_const\[129\]
*1375 o_const\[12\]
*1376 o_const\[130\]
*1377 o_const\[131\]
*1378 o_const\[132\]
*1379 o_const\[133\]
*1380 o_const\[134\]
*1381 o_const\[135\]
*1382 o_const\[136\]
*1383 o_const\[137\]
*1384 o_const\[138\]
*1385 o_const\[139\]
*1386 o_const\[13\]
*1387 o_const\[140\]
*1388 o_const\[141\]
*1389 o_const\[142\]
*1390 o_const\[143\]
*1391 o_const\[144\]
*1392 o_const\[145\]
*1393 o_const\[146\]
*1394 o_const\[147\]
*1395 o_const\[148\]
*1396 o_const\[149\]
*1397 o_const\[14\]
*1398 o_const\[150\]
*1399 o_const\[151\]
*1400 o_const\[152\]
*1401 o_const\[153\]
*1402 o_const\[154\]
*1403 o_const\[155\]
*1404 o_const\[156\]
*1405 o_const\[157\]
*1406 o_const\[158\]
*1407 o_const\[159\]
*1408 o_const\[15\]
*1409 o_const\[160\]
*1410 o_const\[161\]
*1411 o_const\[162\]
*1412 o_const\[163\]
*1413 o_const\[164\]
*1414 o_const\[165\]
*1415 o_const\[166\]
*1416 o_const\[167\]
*1417 o_const\[168\]
*1418 o_const\[169\]
*1419 o_const\[16\]
*1420 o_const\[170\]
*1421 o_const\[171\]
*1422 o_const\[172\]
*1423 o_const\[173\]
*1424 o_const\[174\]
*1425 o_const\[175\]
*1426 o_const\[176\]
*1427 o_const\[177\]
*1428 o_const\[178\]
*1429 o_const\[179\]
*1430 o_const\[17\]
*1431 o_const\[180\]
*1432 o_const\[181\]
*1433 o_const\[182\]
*1434 o_const\[183\]
*1435 o_const\[184\]
*1436 o_const\[185\]
*1437 o_const\[186\]
*1438 o_const\[187\]
*1439 o_const\[188\]
*1440 o_const\[189\]
*1441 o_const\[18\]
*1442 o_const\[190\]
*1443 o_const\[191\]
*1444 o_const\[192\]
*1445 o_const\[193\]
*1446 o_const\[194\]
*1447 o_const\[195\]
*1448 o_const\[196\]
*1449 o_const\[197\]
*1450 o_const\[198\]
*1451 o_const\[199\]
*1452 o_const\[19\]
*1453 o_const\[1\]
*1454 o_const\[200\]
*1455 o_const\[201\]
*1456 o_const\[202\]
*1457 o_const\[203\]
*1458 o_const\[204\]
*1459 o_const\[205\]
*1460 o_const\[206\]
*1461 o_const\[207\]
*1462 o_const\[208\]
*1463 o_const\[209\]
*1464 o_const\[20\]
*1465 o_const\[210\]
*1466 o_const\[211\]
*1467 o_const\[212\]
*1468 o_const\[213\]
*1469 o_const\[214\]
*1470 o_const\[215\]
*1471 o_const\[216\]
*1472 o_const\[217\]
*1473 o_const\[218\]
*1474 o_const\[219\]
*1475 o_const\[21\]
*1476 o_const\[220\]
*1477 o_const\[221\]
*1478 o_const\[222\]
*1479 o_const\[223\]
*1480 o_const\[224\]
*1481 o_const\[225\]
*1482 o_const\[226\]
*1483 o_const\[227\]
*1484 o_const\[228\]
*1485 o_const\[229\]
*1486 o_const\[22\]
*1487 o_const\[230\]
*1488 o_const\[231\]
*1489 o_const\[232\]
*1490 o_const\[233\]
*1491 o_const\[234\]
*1492 o_const\[235\]
*1493 o_const\[236\]
*1494 o_const\[237\]
*1495 o_const\[238\]
*1496 o_const\[239\]
*1497 o_const\[23\]
*1498 o_const\[24\]
*1499 o_const\[25\]
*1500 o_const\[26\]
*1501 o_const\[27\]
*1502 o_const\[28\]
*1503 o_const\[29\]
*1504 o_const\[2\]
*1505 o_const\[30\]
*1506 o_const\[31\]
*1507 o_const\[32\]
*1508 o_const\[33\]
*1509 o_const\[34\]
*1510 o_const\[35\]
*1511 o_const\[36\]
*1512 o_const\[37\]
*1513 o_const\[38\]
*1514 o_const\[39\]
*1515 o_const\[3\]
*1516 o_const\[40\]
*1517 o_const\[41\]
*1518 o_const\[42\]
*1519 o_const\[43\]
*1520 o_const\[44\]
*1521 o_const\[45\]
*1522 o_const\[46\]
*1523 o_const\[47\]
*1524 o_const\[48\]
*1525 o_const\[49\]
*1526 o_const\[4\]
*1527 o_const\[50\]
*1528 o_const\[51\]
*1529 o_const\[52\]
*1530 o_const\[53\]
*1531 o_const\[54\]
*1532 o_const\[55\]
*1533 o_const\[56\]
*1534 o_const\[57\]
*1535 o_const\[58\]
*1536 o_const\[59\]
*1537 o_const\[5\]
*1538 o_const\[60\]
*1539 o_const\[61\]
*1540 o_const\[62\]
*1541 o_const\[63\]
*1542 o_const\[64\]
*1543 o_const\[65\]
*1544 o_const\[66\]
*1545 o_const\[67\]
*1546 o_const\[68\]
*1547 o_const\[69\]
*1548 o_const\[6\]
*1549 o_const\[70\]
*1550 o_const\[71\]
*1551 o_const\[72\]
*1552 o_const\[73\]
*1553 o_const\[74\]
*1554 o_const\[75\]
*1555 o_const\[76\]
*1556 o_const\[77\]
*1557 o_const\[78\]
*1558 o_const\[79\]
*1559 o_const\[7\]
*1560 o_const\[80\]
*1561 o_const\[81\]
*1562 o_const\[82\]